*SPEF "ieee 1481-1999"
*DESIGN "adder64"
*DATE "15:39:51 Wednesday October 08, 2025"
*VENDOR "The OpenROAD Project"
*PROGRAM "OpenROAD"
*VERSION "v2.0-19290-g6c60401f9"
*DESIGN_FLOW "NAME_SCOPE LOCAL" "PIN_CAP NONE"
*DIVIDER /
*DELIMITER :
*BUS_DELIMITER []
*T_UNIT 1 NS
*C_UNIT 1 PF
*R_UNIT 1 OHM
*L_UNIT 1 HENRY

*NAME_MAP
*1 a[0]
*2 a[10]
*3 a[11]
*4 a[12]
*5 a[13]
*6 a[14]
*7 a[15]
*8 a[16]
*9 a[17]
*10 a[18]
*11 a[19]
*12 a[1]
*13 a[20]
*14 a[21]
*15 a[22]
*16 a[23]
*17 a[24]
*18 a[25]
*19 a[26]
*20 a[27]
*21 a[28]
*22 a[29]
*23 a[2]
*24 a[30]
*25 a[31]
*26 a[32]
*27 a[33]
*28 a[34]
*29 a[35]
*30 a[36]
*31 a[37]
*32 a[38]
*33 a[39]
*34 a[3]
*35 a[40]
*36 a[41]
*37 a[42]
*38 a[43]
*39 a[44]
*40 a[45]
*41 a[46]
*42 a[47]
*43 a[48]
*44 a[49]
*45 a[4]
*46 a[50]
*47 a[51]
*48 a[52]
*49 a[53]
*50 a[54]
*51 a[55]
*52 a[56]
*53 a[57]
*54 a[58]
*55 a[59]
*56 a[5]
*57 a[60]
*58 a[61]
*59 a[62]
*60 a[63]
*61 a[6]
*62 a[7]
*63 a[8]
*64 a[9]
*65 b[0]
*66 b[10]
*67 b[11]
*68 b[12]
*69 b[13]
*70 b[14]
*71 b[15]
*72 b[16]
*73 b[17]
*74 b[18]
*75 b[19]
*76 b[1]
*77 b[20]
*78 b[21]
*79 b[22]
*80 b[23]
*81 b[24]
*82 b[25]
*83 b[26]
*84 b[27]
*85 b[28]
*86 b[29]
*87 b[2]
*88 b[30]
*89 b[31]
*90 b[32]
*91 b[33]
*92 b[34]
*93 b[35]
*94 b[36]
*95 b[37]
*96 b[38]
*97 b[39]
*98 b[3]
*99 b[40]
*100 b[41]
*101 b[42]
*102 b[43]
*103 b[44]
*104 b[45]
*105 b[46]
*106 b[47]
*107 b[48]
*108 b[49]
*109 b[4]
*110 b[50]
*111 b[51]
*112 b[52]
*113 b[53]
*114 b[54]
*115 b[55]
*116 b[56]
*117 b[57]
*118 b[58]
*119 b[59]
*120 b[5]
*121 b[60]
*122 b[61]
*123 b[62]
*124 b[63]
*125 b[6]
*126 b[7]
*127 b[8]
*128 b[9]
*129 c1
*130 cin
*131 cout
*132 s[0]
*133 s[10]
*134 s[11]
*135 s[12]
*136 s[13]
*137 s[14]
*138 s[15]
*139 s[16]
*140 s[17]
*141 s[18]
*142 s[19]
*143 s[1]
*144 s[20]
*145 s[21]
*146 s[22]
*147 s[23]
*148 s[24]
*149 s[25]
*150 s[26]
*151 s[27]
*152 s[28]
*153 s[29]
*154 s[2]
*155 s[30]
*156 s[31]
*157 s[32]
*158 s[33]
*159 s[34]
*160 s[35]
*161 s[36]
*162 s[37]
*163 s[38]
*164 s[39]
*165 s[3]
*166 s[40]
*167 s[41]
*168 s[42]
*169 s[43]
*170 s[44]
*171 s[45]
*172 s[46]
*173 s[47]
*174 s[48]
*175 s[49]
*176 s[4]
*177 s[50]
*178 s[51]
*179 s[52]
*180 s[53]
*181 s[54]
*182 s[55]
*183 s[56]
*184 s[57]
*185 s[58]
*186 s[59]
*187 s[5]
*188 s[60]
*189 s[61]
*190 s[62]
*191 s[63]
*192 s[6]
*193 s[7]
*194 s[8]
*195 s[9]
*196 Add1/c1
*197 Add1/c2
*198 Add1/c3
*199 Add1/Add1/c1
*200 Add1/Add1/Add1/_00_
*201 Add1/Add1/Add1/_01_
*202 Add1/Add1/Add1/_02_
*203 Add1/Add1/Add1/_03_
*204 Add1/Add1/Add1/_04_
*205 Add1/Add1/Add1/_05_
*206 Add1/Add1/Add1/_06_
*207 Add1/Add1/Add1/_07_
*208 Add1/Add1/Add1/_08_
*209 Add1/Add1/Add1/_09_
*210 Add1/Add1/Add1/_10_
*211 Add1/Add1/Add1/_11_
*212 Add1/Add1/Add1/_12_
*213 Add1/Add1/Add1/_13_
*214 Add1/Add1/Add1/_14_
*215 Add1/Add1/Add2/_00_
*216 Add1/Add1/Add2/_01_
*217 Add1/Add1/Add2/_02_
*218 Add1/Add1/Add2/_03_
*219 Add1/Add1/Add2/_04_
*220 Add1/Add1/Add2/_05_
*221 Add1/Add1/Add2/_06_
*222 Add1/Add1/Add2/_07_
*223 Add1/Add1/Add2/_08_
*224 Add1/Add1/Add2/_09_
*225 Add1/Add1/Add2/_10_
*226 Add1/Add1/Add2/_11_
*227 Add1/Add1/Add2/_12_
*228 Add1/Add1/Add2/_13_
*229 Add1/Add1/Add2/_14_
*230 Add1/Add2/c1
*231 Add1/Add2/Add1/_00_
*232 Add1/Add2/Add1/_01_
*233 Add1/Add2/Add1/_02_
*234 Add1/Add2/Add1/_03_
*235 Add1/Add2/Add1/_04_
*236 Add1/Add2/Add1/_05_
*237 Add1/Add2/Add1/_06_
*238 Add1/Add2/Add1/_07_
*239 Add1/Add2/Add1/_08_
*240 Add1/Add2/Add1/_09_
*241 Add1/Add2/Add1/_10_
*242 Add1/Add2/Add1/_11_
*243 Add1/Add2/Add1/_12_
*244 Add1/Add2/Add1/_13_
*245 Add1/Add2/Add1/_14_
*246 Add1/Add2/Add2/_00_
*247 Add1/Add2/Add2/_01_
*248 Add1/Add2/Add2/_02_
*249 Add1/Add2/Add2/_03_
*250 Add1/Add2/Add2/_04_
*251 Add1/Add2/Add2/_05_
*252 Add1/Add2/Add2/_06_
*253 Add1/Add2/Add2/_07_
*254 Add1/Add2/Add2/_08_
*255 Add1/Add2/Add2/_09_
*256 Add1/Add2/Add2/_10_
*257 Add1/Add2/Add2/_11_
*258 Add1/Add2/Add2/_12_
*259 Add1/Add2/Add2/_13_
*260 Add1/Add2/Add2/_14_
*261 Add1/Add3/c1
*262 Add1/Add3/Add1/_00_
*263 Add1/Add3/Add1/_01_
*264 Add1/Add3/Add1/_02_
*265 Add1/Add3/Add1/_03_
*266 Add1/Add3/Add1/_04_
*267 Add1/Add3/Add1/_05_
*268 Add1/Add3/Add1/_06_
*269 Add1/Add3/Add1/_07_
*270 Add1/Add3/Add1/_08_
*271 Add1/Add3/Add1/_09_
*272 Add1/Add3/Add1/_10_
*273 Add1/Add3/Add1/_11_
*274 Add1/Add3/Add1/_12_
*275 Add1/Add3/Add1/_13_
*276 Add1/Add3/Add1/_14_
*277 Add1/Add3/Add2/_00_
*278 Add1/Add3/Add2/_01_
*279 Add1/Add3/Add2/_02_
*280 Add1/Add3/Add2/_03_
*281 Add1/Add3/Add2/_04_
*282 Add1/Add3/Add2/_05_
*283 Add1/Add3/Add2/_06_
*284 Add1/Add3/Add2/_07_
*285 Add1/Add3/Add2/_08_
*286 Add1/Add3/Add2/_09_
*287 Add1/Add3/Add2/_10_
*288 Add1/Add3/Add2/_11_
*289 Add1/Add3/Add2/_12_
*290 Add1/Add3/Add2/_13_
*291 Add1/Add3/Add2/_14_
*292 Add1/Add4/c1
*293 Add1/Add4/Add1/_00_
*294 Add1/Add4/Add1/_01_
*295 Add1/Add4/Add1/_02_
*296 Add1/Add4/Add1/_03_
*297 Add1/Add4/Add1/_04_
*298 Add1/Add4/Add1/_05_
*299 Add1/Add4/Add1/_06_
*300 Add1/Add4/Add1/_07_
*301 Add1/Add4/Add1/_08_
*302 Add1/Add4/Add1/_09_
*303 Add1/Add4/Add1/_10_
*304 Add1/Add4/Add1/_11_
*305 Add1/Add4/Add1/_12_
*306 Add1/Add4/Add1/_13_
*307 Add1/Add4/Add1/_14_
*308 Add1/Add4/Add2/_00_
*309 Add1/Add4/Add2/_01_
*310 Add1/Add4/Add2/_02_
*311 Add1/Add4/Add2/_03_
*312 Add1/Add4/Add2/_04_
*313 Add1/Add4/Add2/_05_
*314 Add1/Add4/Add2/_06_
*315 Add1/Add4/Add2/_07_
*316 Add1/Add4/Add2/_08_
*317 Add1/Add4/Add2/_09_
*318 Add1/Add4/Add2/_10_
*319 Add1/Add4/Add2/_11_
*320 Add1/Add4/Add2/_12_
*321 Add1/Add4/Add2/_13_
*322 Add1/Add4/Add2/_14_
*323 Add2/c1
*324 Add2/c2
*325 Add2/c3
*326 Add2/Add1/c1
*327 Add2/Add1/Add1/_00_
*328 Add2/Add1/Add1/_01_
*329 Add2/Add1/Add1/_02_
*330 Add2/Add1/Add1/_03_
*331 Add2/Add1/Add1/_04_
*332 Add2/Add1/Add1/_05_
*333 Add2/Add1/Add1/_06_
*334 Add2/Add1/Add1/_07_
*335 Add2/Add1/Add1/_08_
*336 Add2/Add1/Add1/_09_
*337 Add2/Add1/Add1/_10_
*338 Add2/Add1/Add1/_11_
*339 Add2/Add1/Add1/_12_
*340 Add2/Add1/Add1/_13_
*341 Add2/Add1/Add1/_14_
*342 Add2/Add1/Add2/_00_
*343 Add2/Add1/Add2/_01_
*344 Add2/Add1/Add2/_02_
*345 Add2/Add1/Add2/_03_
*346 Add2/Add1/Add2/_04_
*347 Add2/Add1/Add2/_05_
*348 Add2/Add1/Add2/_06_
*349 Add2/Add1/Add2/_07_
*350 Add2/Add1/Add2/_08_
*351 Add2/Add1/Add2/_09_
*352 Add2/Add1/Add2/_10_
*353 Add2/Add1/Add2/_11_
*354 Add2/Add1/Add2/_12_
*355 Add2/Add1/Add2/_13_
*356 Add2/Add1/Add2/_14_
*357 Add2/Add2/c1
*358 Add2/Add2/Add1/_00_
*359 Add2/Add2/Add1/_01_
*360 Add2/Add2/Add1/_02_
*361 Add2/Add2/Add1/_03_
*362 Add2/Add2/Add1/_04_
*363 Add2/Add2/Add1/_05_
*364 Add2/Add2/Add1/_06_
*365 Add2/Add2/Add1/_07_
*366 Add2/Add2/Add1/_08_
*367 Add2/Add2/Add1/_09_
*368 Add2/Add2/Add1/_10_
*369 Add2/Add2/Add1/_11_
*370 Add2/Add2/Add1/_12_
*371 Add2/Add2/Add1/_13_
*372 Add2/Add2/Add1/_14_
*373 Add2/Add2/Add2/_00_
*374 Add2/Add2/Add2/_01_
*375 Add2/Add2/Add2/_02_
*376 Add2/Add2/Add2/_03_
*377 Add2/Add2/Add2/_04_
*378 Add2/Add2/Add2/_05_
*379 Add2/Add2/Add2/_06_
*380 Add2/Add2/Add2/_07_
*381 Add2/Add2/Add2/_08_
*382 Add2/Add2/Add2/_09_
*383 Add2/Add2/Add2/_10_
*384 Add2/Add2/Add2/_11_
*385 Add2/Add2/Add2/_12_
*386 Add2/Add2/Add2/_13_
*387 Add2/Add2/Add2/_14_
*388 Add2/Add3/c1
*389 Add2/Add3/Add1/_00_
*390 Add2/Add3/Add1/_01_
*391 Add2/Add3/Add1/_02_
*392 Add2/Add3/Add1/_03_
*393 Add2/Add3/Add1/_04_
*394 Add2/Add3/Add1/_05_
*395 Add2/Add3/Add1/_06_
*396 Add2/Add3/Add1/_07_
*397 Add2/Add3/Add1/_08_
*398 Add2/Add3/Add1/_09_
*399 Add2/Add3/Add1/_10_
*400 Add2/Add3/Add1/_11_
*401 Add2/Add3/Add1/_12_
*402 Add2/Add3/Add1/_13_
*403 Add2/Add3/Add1/_14_
*404 Add2/Add3/Add2/_00_
*405 Add2/Add3/Add2/_01_
*406 Add2/Add3/Add2/_02_
*407 Add2/Add3/Add2/_03_
*408 Add2/Add3/Add2/_04_
*409 Add2/Add3/Add2/_05_
*410 Add2/Add3/Add2/_06_
*411 Add2/Add3/Add2/_07_
*412 Add2/Add3/Add2/_08_
*413 Add2/Add3/Add2/_09_
*414 Add2/Add3/Add2/_10_
*415 Add2/Add3/Add2/_11_
*416 Add2/Add3/Add2/_12_
*417 Add2/Add3/Add2/_13_
*418 Add2/Add3/Add2/_14_
*419 Add2/Add4/c1
*420 Add2/Add4/Add1/_00_
*421 Add2/Add4/Add1/_01_
*422 Add2/Add4/Add1/_02_
*423 Add2/Add4/Add1/_03_
*424 Add2/Add4/Add1/_04_
*425 Add2/Add4/Add1/_05_
*426 Add2/Add4/Add1/_06_
*427 Add2/Add4/Add1/_07_
*428 Add2/Add4/Add1/_08_
*429 Add2/Add4/Add1/_09_
*430 Add2/Add4/Add1/_10_
*431 Add2/Add4/Add1/_11_
*432 Add2/Add4/Add1/_12_
*433 Add2/Add4/Add1/_13_
*434 Add2/Add4/Add1/_14_
*435 Add2/Add4/Add2/_00_
*436 Add2/Add4/Add2/_01_
*437 Add2/Add4/Add2/_02_
*438 Add2/Add4/Add2/_03_
*439 Add2/Add4/Add2/_04_
*440 Add2/Add4/Add2/_05_
*441 Add2/Add4/Add2/_06_
*442 Add2/Add4/Add2/_07_
*443 Add2/Add4/Add2/_08_
*444 Add2/Add4/Add2/_09_
*445 Add2/Add4/Add2/_10_
*446 Add2/Add4/Add2/_11_
*447 Add2/Add4/Add2/_12_
*448 Add2/Add4/Add2/_13_
*449 Add2/Add4/Add2/_14_
*450 Add1/Add1/Add1/_15_
*451 Add1/Add1/Add1/_16_
*452 Add1/Add1/Add1/_17_
*453 Add1/Add1/Add1/_18_
*454 Add1/Add1/Add1/_19_
*455 Add1/Add1/Add1/_20_
*456 Add1/Add1/Add1/_21_
*457 Add1/Add1/Add1/_22_
*458 Add1/Add1/Add1/_23_
*459 Add1/Add1/Add1/_24_
*460 Add1/Add1/Add1/_25_
*461 Add1/Add1/Add1/_26_
*462 Add1/Add1/Add1/_27_
*463 Add1/Add1/Add1/_28_
*464 Add1/Add1/Add1/_29_
*465 Add1/Add1/Add1/_30_
*466 Add1/Add1/Add1/_31_
*467 Add1/Add1/Add1/_32_
*468 Add1/Add1/Add1/_33_
*469 Add1/Add1/Add1/_34_
*470 Add1/Add1/Add2/_15_
*471 Add1/Add1/Add2/_16_
*472 Add1/Add1/Add2/_17_
*473 Add1/Add1/Add2/_18_
*474 Add1/Add1/Add2/_19_
*475 Add1/Add1/Add2/_20_
*476 Add1/Add1/Add2/_21_
*477 Add1/Add1/Add2/_22_
*478 Add1/Add1/Add2/_23_
*479 Add1/Add1/Add2/_24_
*480 Add1/Add1/Add2/_25_
*481 Add1/Add1/Add2/_26_
*482 Add1/Add1/Add2/_27_
*483 Add1/Add1/Add2/_28_
*484 Add1/Add1/Add2/_29_
*485 Add1/Add1/Add2/_30_
*486 Add1/Add1/Add2/_31_
*487 Add1/Add1/Add2/_32_
*488 Add1/Add1/Add2/_33_
*489 Add1/Add1/Add2/_34_
*490 Add1/Add2/Add1/_15_
*491 Add1/Add2/Add1/_16_
*492 Add1/Add2/Add1/_17_
*493 Add1/Add2/Add1/_18_
*494 Add1/Add2/Add1/_19_
*495 Add1/Add2/Add1/_20_
*496 Add1/Add2/Add1/_21_
*497 Add1/Add2/Add1/_22_
*498 Add1/Add2/Add1/_23_
*499 Add1/Add2/Add1/_24_
*500 Add1/Add2/Add1/_25_
*501 Add1/Add2/Add1/_26_
*502 Add1/Add2/Add1/_27_
*503 Add1/Add2/Add1/_28_
*504 Add1/Add2/Add1/_29_
*505 Add1/Add2/Add1/_30_
*506 Add1/Add2/Add1/_31_
*507 Add1/Add2/Add1/_32_
*508 Add1/Add2/Add1/_33_
*509 Add1/Add2/Add1/_34_
*510 Add1/Add2/Add2/_15_
*511 Add1/Add2/Add2/_16_
*512 Add1/Add2/Add2/_17_
*513 Add1/Add2/Add2/_18_
*514 Add1/Add2/Add2/_19_
*515 Add1/Add2/Add2/_20_
*516 Add1/Add2/Add2/_21_
*517 Add1/Add2/Add2/_22_
*518 Add1/Add2/Add2/_23_
*519 Add1/Add2/Add2/_24_
*520 Add1/Add2/Add2/_25_
*521 Add1/Add2/Add2/_26_
*522 Add1/Add2/Add2/_27_
*523 Add1/Add2/Add2/_28_
*524 Add1/Add2/Add2/_29_
*525 Add1/Add2/Add2/_30_
*526 Add1/Add2/Add2/_31_
*527 Add1/Add2/Add2/_32_
*528 Add1/Add2/Add2/_33_
*529 Add1/Add2/Add2/_34_
*530 Add1/Add3/Add1/_15_
*531 Add1/Add3/Add1/_16_
*532 Add1/Add3/Add1/_17_
*533 Add1/Add3/Add1/_18_
*534 Add1/Add3/Add1/_19_
*535 Add1/Add3/Add1/_20_
*536 Add1/Add3/Add1/_21_
*537 Add1/Add3/Add1/_22_
*538 Add1/Add3/Add1/_23_
*539 Add1/Add3/Add1/_24_
*540 Add1/Add3/Add1/_25_
*541 Add1/Add3/Add1/_26_
*542 Add1/Add3/Add1/_27_
*543 Add1/Add3/Add1/_28_
*544 Add1/Add3/Add1/_29_
*545 Add1/Add3/Add1/_30_
*546 Add1/Add3/Add1/_31_
*547 Add1/Add3/Add1/_32_
*548 Add1/Add3/Add1/_33_
*549 Add1/Add3/Add1/_34_
*550 Add1/Add3/Add2/_15_
*551 Add1/Add3/Add2/_16_
*552 Add1/Add3/Add2/_17_
*553 Add1/Add3/Add2/_18_
*554 Add1/Add3/Add2/_19_
*555 Add1/Add3/Add2/_20_
*556 Add1/Add3/Add2/_21_
*557 Add1/Add3/Add2/_22_
*558 Add1/Add3/Add2/_23_
*559 Add1/Add3/Add2/_24_
*560 Add1/Add3/Add2/_25_
*561 Add1/Add3/Add2/_26_
*562 Add1/Add3/Add2/_27_
*563 Add1/Add3/Add2/_28_
*564 Add1/Add3/Add2/_29_
*565 Add1/Add3/Add2/_30_
*566 Add1/Add3/Add2/_31_
*567 Add1/Add3/Add2/_32_
*568 Add1/Add3/Add2/_33_
*569 Add1/Add3/Add2/_34_
*570 Add1/Add4/Add1/_15_
*571 Add1/Add4/Add1/_16_
*572 Add1/Add4/Add1/_17_
*573 Add1/Add4/Add1/_18_
*574 Add1/Add4/Add1/_19_
*575 Add1/Add4/Add1/_20_
*576 Add1/Add4/Add1/_21_
*577 Add1/Add4/Add1/_22_
*578 Add1/Add4/Add1/_23_
*579 Add1/Add4/Add1/_24_
*580 Add1/Add4/Add1/_25_
*581 Add1/Add4/Add1/_26_
*582 Add1/Add4/Add1/_27_
*583 Add1/Add4/Add1/_28_
*584 Add1/Add4/Add1/_29_
*585 Add1/Add4/Add1/_30_
*586 Add1/Add4/Add1/_31_
*587 Add1/Add4/Add1/_32_
*588 Add1/Add4/Add1/_33_
*589 Add1/Add4/Add1/_34_
*590 Add1/Add4/Add2/_15_
*591 Add1/Add4/Add2/_16_
*592 Add1/Add4/Add2/_17_
*593 Add1/Add4/Add2/_18_
*594 Add1/Add4/Add2/_19_
*595 Add1/Add4/Add2/_20_
*596 Add1/Add4/Add2/_21_
*597 Add1/Add4/Add2/_22_
*598 Add1/Add4/Add2/_23_
*599 Add1/Add4/Add2/_24_
*600 Add1/Add4/Add2/_25_
*601 Add1/Add4/Add2/_26_
*602 Add1/Add4/Add2/_27_
*603 Add1/Add4/Add2/_28_
*604 Add1/Add4/Add2/_29_
*605 Add1/Add4/Add2/_30_
*606 Add1/Add4/Add2/_31_
*607 Add1/Add4/Add2/_32_
*608 Add1/Add4/Add2/_33_
*609 Add1/Add4/Add2/_34_
*610 Add2/Add1/Add1/_15_
*611 Add2/Add1/Add1/_16_
*612 Add2/Add1/Add1/_17_
*613 Add2/Add1/Add1/_18_
*614 Add2/Add1/Add1/_19_
*615 Add2/Add1/Add1/_20_
*616 Add2/Add1/Add1/_21_
*617 Add2/Add1/Add1/_22_
*618 Add2/Add1/Add1/_23_
*619 Add2/Add1/Add1/_24_
*620 Add2/Add1/Add1/_25_
*621 Add2/Add1/Add1/_26_
*622 Add2/Add1/Add1/_27_
*623 Add2/Add1/Add1/_28_
*624 Add2/Add1/Add1/_29_
*625 Add2/Add1/Add1/_30_
*626 Add2/Add1/Add1/_31_
*627 Add2/Add1/Add1/_32_
*628 Add2/Add1/Add1/_33_
*629 Add2/Add1/Add1/_34_
*630 Add2/Add1/Add2/_15_
*631 Add2/Add1/Add2/_16_
*632 Add2/Add1/Add2/_17_
*633 Add2/Add1/Add2/_18_
*634 Add2/Add1/Add2/_19_
*635 Add2/Add1/Add2/_20_
*636 Add2/Add1/Add2/_21_
*637 Add2/Add1/Add2/_22_
*638 Add2/Add1/Add2/_23_
*639 Add2/Add1/Add2/_24_
*640 Add2/Add1/Add2/_25_
*641 Add2/Add1/Add2/_26_
*642 Add2/Add1/Add2/_27_
*643 Add2/Add1/Add2/_28_
*644 Add2/Add1/Add2/_29_
*645 Add2/Add1/Add2/_30_
*646 Add2/Add1/Add2/_31_
*647 Add2/Add1/Add2/_32_
*648 Add2/Add1/Add2/_33_
*649 Add2/Add1/Add2/_34_
*650 Add2/Add2/Add1/_15_
*651 Add2/Add2/Add1/_16_
*652 Add2/Add2/Add1/_17_
*653 Add2/Add2/Add1/_18_
*654 Add2/Add2/Add1/_19_
*655 Add2/Add2/Add1/_20_
*656 Add2/Add2/Add1/_21_
*657 Add2/Add2/Add1/_22_
*658 Add2/Add2/Add1/_23_
*659 Add2/Add2/Add1/_24_
*660 Add2/Add2/Add1/_25_
*661 Add2/Add2/Add1/_26_
*662 Add2/Add2/Add1/_27_
*663 Add2/Add2/Add1/_28_
*664 Add2/Add2/Add1/_29_
*665 Add2/Add2/Add1/_30_
*666 Add2/Add2/Add1/_31_
*667 Add2/Add2/Add1/_32_
*668 Add2/Add2/Add1/_33_
*669 Add2/Add2/Add1/_34_
*670 Add2/Add2/Add2/_15_
*671 Add2/Add2/Add2/_16_
*672 Add2/Add2/Add2/_17_
*673 Add2/Add2/Add2/_18_
*674 Add2/Add2/Add2/_19_
*675 Add2/Add2/Add2/_20_
*676 Add2/Add2/Add2/_21_
*677 Add2/Add2/Add2/_22_
*678 Add2/Add2/Add2/_23_
*679 Add2/Add2/Add2/_24_
*680 Add2/Add2/Add2/_25_
*681 Add2/Add2/Add2/_26_
*682 Add2/Add2/Add2/_27_
*683 Add2/Add2/Add2/_28_
*684 Add2/Add2/Add2/_29_
*685 Add2/Add2/Add2/_30_
*686 Add2/Add2/Add2/_31_
*687 Add2/Add2/Add2/_32_
*688 Add2/Add2/Add2/_33_
*689 Add2/Add2/Add2/_34_
*690 Add2/Add3/Add1/_15_
*691 Add2/Add3/Add1/_16_
*692 Add2/Add3/Add1/_17_
*693 Add2/Add3/Add1/_18_
*694 Add2/Add3/Add1/_19_
*695 Add2/Add3/Add1/_20_
*696 Add2/Add3/Add1/_21_
*697 Add2/Add3/Add1/_22_
*698 Add2/Add3/Add1/_23_
*699 Add2/Add3/Add1/_24_
*700 Add2/Add3/Add1/_25_
*701 Add2/Add3/Add1/_26_
*702 Add2/Add3/Add1/_27_
*703 Add2/Add3/Add1/_28_
*704 Add2/Add3/Add1/_29_
*705 Add2/Add3/Add1/_30_
*706 Add2/Add3/Add1/_31_
*707 Add2/Add3/Add1/_32_
*708 Add2/Add3/Add1/_33_
*709 Add2/Add3/Add1/_34_
*710 Add2/Add3/Add2/_15_
*711 Add2/Add3/Add2/_16_
*712 Add2/Add3/Add2/_17_
*713 Add2/Add3/Add2/_18_
*714 Add2/Add3/Add2/_19_
*715 Add2/Add3/Add2/_20_
*716 Add2/Add3/Add2/_21_
*717 Add2/Add3/Add2/_22_
*718 Add2/Add3/Add2/_23_
*719 Add2/Add3/Add2/_24_
*720 Add2/Add3/Add2/_25_
*721 Add2/Add3/Add2/_26_
*722 Add2/Add3/Add2/_27_
*723 Add2/Add3/Add2/_28_
*724 Add2/Add3/Add2/_29_
*725 Add2/Add3/Add2/_30_
*726 Add2/Add3/Add2/_31_
*727 Add2/Add3/Add2/_32_
*728 Add2/Add3/Add2/_33_
*729 Add2/Add3/Add2/_34_
*730 Add2/Add4/Add1/_15_
*731 Add2/Add4/Add1/_16_
*732 Add2/Add4/Add1/_17_
*733 Add2/Add4/Add1/_18_
*734 Add2/Add4/Add1/_19_
*735 Add2/Add4/Add1/_20_
*736 Add2/Add4/Add1/_21_
*737 Add2/Add4/Add1/_22_
*738 Add2/Add4/Add1/_23_
*739 Add2/Add4/Add1/_24_
*740 Add2/Add4/Add1/_25_
*741 Add2/Add4/Add1/_26_
*742 Add2/Add4/Add1/_27_
*743 Add2/Add4/Add1/_28_
*744 Add2/Add4/Add1/_29_
*745 Add2/Add4/Add1/_30_
*746 Add2/Add4/Add1/_31_
*747 Add2/Add4/Add1/_32_
*748 Add2/Add4/Add1/_33_
*749 Add2/Add4/Add1/_34_
*750 Add2/Add4/Add2/_15_
*751 Add2/Add4/Add2/_16_
*752 Add2/Add4/Add2/_17_
*753 Add2/Add4/Add2/_18_
*754 Add2/Add4/Add2/_19_
*755 Add2/Add4/Add2/_20_
*756 Add2/Add4/Add2/_21_
*757 Add2/Add4/Add2/_22_
*758 Add2/Add4/Add2/_23_
*759 Add2/Add4/Add2/_24_
*760 Add2/Add4/Add2/_25_
*761 Add2/Add4/Add2/_26_
*762 Add2/Add4/Add2/_27_
*763 Add2/Add4/Add2/_28_
*764 Add2/Add4/Add2/_29_
*765 Add2/Add4/Add2/_30_
*766 Add2/Add4/Add2/_31_
*767 Add2/Add4/Add2/_32_
*768 Add2/Add4/Add2/_33_
*769 Add2/Add4/Add2/_34_
*770 PHY_EDGE_ROW_0_Right_0
*771 PHY_EDGE_ROW_1_Right_1
*772 PHY_EDGE_ROW_2_Right_2
*773 PHY_EDGE_ROW_3_Right_3
*774 PHY_EDGE_ROW_4_Right_4
*775 PHY_EDGE_ROW_5_Right_5
*776 PHY_EDGE_ROW_6_Right_6
*777 PHY_EDGE_ROW_7_Right_7
*778 PHY_EDGE_ROW_8_Right_8
*779 PHY_EDGE_ROW_9_Right_9
*780 PHY_EDGE_ROW_10_Right_10
*781 PHY_EDGE_ROW_11_Right_11
*782 PHY_EDGE_ROW_12_Right_12
*783 PHY_EDGE_ROW_13_Right_13
*784 PHY_EDGE_ROW_14_Right_14
*785 PHY_EDGE_ROW_15_Right_15
*786 PHY_EDGE_ROW_16_Right_16
*787 PHY_EDGE_ROW_17_Right_17
*788 PHY_EDGE_ROW_18_Right_18
*789 PHY_EDGE_ROW_19_Right_19
*790 PHY_EDGE_ROW_20_Right_20
*791 PHY_EDGE_ROW_21_Right_21
*792 PHY_EDGE_ROW_22_Right_22
*793 PHY_EDGE_ROW_23_Right_23
*794 PHY_EDGE_ROW_24_Right_24
*795 PHY_EDGE_ROW_25_Right_25
*796 PHY_EDGE_ROW_26_Right_26
*797 PHY_EDGE_ROW_27_Right_27
*798 PHY_EDGE_ROW_28_Right_28
*799 PHY_EDGE_ROW_29_Right_29
*800 PHY_EDGE_ROW_30_Right_30
*801 PHY_EDGE_ROW_31_Right_31
*802 PHY_EDGE_ROW_32_Right_32
*803 PHY_EDGE_ROW_33_Right_33
*804 PHY_EDGE_ROW_34_Right_34
*805 PHY_EDGE_ROW_35_Right_35
*806 PHY_EDGE_ROW_36_Right_36
*807 PHY_EDGE_ROW_37_Right_37
*808 PHY_EDGE_ROW_38_Right_38
*809 PHY_EDGE_ROW_39_Right_39
*810 PHY_EDGE_ROW_40_Right_40
*811 PHY_EDGE_ROW_41_Right_41
*812 PHY_EDGE_ROW_42_Right_42
*813 PHY_EDGE_ROW_43_Right_43
*814 PHY_EDGE_ROW_44_Right_44
*815 PHY_EDGE_ROW_45_Right_45
*816 PHY_EDGE_ROW_46_Right_46
*817 PHY_EDGE_ROW_47_Right_47
*818 PHY_EDGE_ROW_48_Right_48
*819 PHY_EDGE_ROW_49_Right_49
*820 PHY_EDGE_ROW_50_Right_50
*821 PHY_EDGE_ROW_51_Right_51
*822 PHY_EDGE_ROW_52_Right_52
*823 PHY_EDGE_ROW_53_Right_53
*824 PHY_EDGE_ROW_54_Right_54
*825 PHY_EDGE_ROW_55_Right_55
*826 PHY_EDGE_ROW_56_Right_56
*827 PHY_EDGE_ROW_0_Left_57
*828 PHY_EDGE_ROW_1_Left_58
*829 PHY_EDGE_ROW_2_Left_59
*830 PHY_EDGE_ROW_3_Left_60
*831 PHY_EDGE_ROW_4_Left_61
*832 PHY_EDGE_ROW_5_Left_62
*833 PHY_EDGE_ROW_6_Left_63
*834 PHY_EDGE_ROW_7_Left_64
*835 PHY_EDGE_ROW_8_Left_65
*836 PHY_EDGE_ROW_9_Left_66
*837 PHY_EDGE_ROW_10_Left_67
*838 PHY_EDGE_ROW_11_Left_68
*839 PHY_EDGE_ROW_12_Left_69
*840 PHY_EDGE_ROW_13_Left_70
*841 PHY_EDGE_ROW_14_Left_71
*842 PHY_EDGE_ROW_15_Left_72
*843 PHY_EDGE_ROW_16_Left_73
*844 PHY_EDGE_ROW_17_Left_74
*845 PHY_EDGE_ROW_18_Left_75
*846 PHY_EDGE_ROW_19_Left_76
*847 PHY_EDGE_ROW_20_Left_77
*848 PHY_EDGE_ROW_21_Left_78
*849 PHY_EDGE_ROW_22_Left_79
*850 PHY_EDGE_ROW_23_Left_80
*851 PHY_EDGE_ROW_24_Left_81
*852 PHY_EDGE_ROW_25_Left_82
*853 PHY_EDGE_ROW_26_Left_83
*854 PHY_EDGE_ROW_27_Left_84
*855 PHY_EDGE_ROW_28_Left_85
*856 PHY_EDGE_ROW_29_Left_86
*857 PHY_EDGE_ROW_30_Left_87
*858 PHY_EDGE_ROW_31_Left_88
*859 PHY_EDGE_ROW_32_Left_89
*860 PHY_EDGE_ROW_33_Left_90
*861 PHY_EDGE_ROW_34_Left_91
*862 PHY_EDGE_ROW_35_Left_92
*863 PHY_EDGE_ROW_36_Left_93
*864 PHY_EDGE_ROW_37_Left_94
*865 PHY_EDGE_ROW_38_Left_95
*866 PHY_EDGE_ROW_39_Left_96
*867 PHY_EDGE_ROW_40_Left_97
*868 PHY_EDGE_ROW_41_Left_98
*869 PHY_EDGE_ROW_42_Left_99
*870 PHY_EDGE_ROW_43_Left_100
*871 PHY_EDGE_ROW_44_Left_101
*872 PHY_EDGE_ROW_45_Left_102
*873 PHY_EDGE_ROW_46_Left_103
*874 PHY_EDGE_ROW_47_Left_104
*875 PHY_EDGE_ROW_48_Left_105
*876 PHY_EDGE_ROW_49_Left_106
*877 PHY_EDGE_ROW_50_Left_107
*878 PHY_EDGE_ROW_51_Left_108
*879 PHY_EDGE_ROW_52_Left_109
*880 PHY_EDGE_ROW_53_Left_110
*881 PHY_EDGE_ROW_54_Left_111
*882 PHY_EDGE_ROW_55_Left_112
*883 PHY_EDGE_ROW_56_Left_113
*884 FILLER_0_1
*885 FILLER_0_33
*886 FILLER_0_65
*887 FILLER_0_97
*888 FILLER_0_129
*889 FILLER_0_161
*890 FILLER_0_193
*891 FILLER_0_225
*892 FILLER_0_257
*893 FILLER_0_289
*894 FILLER_0_321
*895 FILLER_0_353
*896 FILLER_0_385
*897 FILLER_0_417
*898 FILLER_1_1
*899 FILLER_1_33
*900 FILLER_1_65
*901 FILLER_1_97
*902 FILLER_1_129
*903 FILLER_1_136
*904 FILLER_1_156
*905 FILLER_1_188
*906 FILLER_1_220
*907 FILLER_1_252
*908 FILLER_1_284
*909 FILLER_1_316
*910 FILLER_1_348
*911 FILLER_1_380
*912 FILLER_1_412
*913 FILLER_1_420
*914 FILLER_2_1
*915 FILLER_2_33
*916 FILLER_2_65
*917 FILLER_2_97
*918 FILLER_2_135
*919 FILLER_2_143
*920 FILLER_2_152
*921 FILLER_2_160
*922 FILLER_2_192
*923 FILLER_2_224
*924 FILLER_2_232
*925 FILLER_2_264
*926 FILLER_2_296
*927 FILLER_2_328
*928 FILLER_2_360
*929 FILLER_2_376
*930 FILLER_2_380
*931 FILLER_2_387
*932 FILLER_2_393
*933 FILLER_2_409
*934 FILLER_2_417
*935 FILLER_3_1
*936 FILLER_3_33
*937 FILLER_3_65
*938 FILLER_3_97
*939 FILLER_3_129
*940 FILLER_3_131
*941 FILLER_3_135
*942 FILLER_3_144
*943 FILLER_3_148
*944 FILLER_3_150
*945 FILLER_3_155
*946 FILLER_3_187
*947 FILLER_3_219
*948 FILLER_3_226
*949 FILLER_3_234
*950 FILLER_3_239
*951 FILLER_3_271
*952 FILLER_3_303
*953 FILLER_3_335
*954 FILLER_3_367
*955 FILLER_3_383
*956 FILLER_3_391
*957 FILLER_3_399
*958 FILLER_3_415
*959 FILLER_3_419
*960 FILLER_4_1
*961 FILLER_4_33
*962 FILLER_4_65
*963 FILLER_4_97
*964 FILLER_4_129
*965 FILLER_4_133
*966 FILLER_4_138
*967 FILLER_4_170
*968 FILLER_4_202
*969 FILLER_4_218
*970 FILLER_4_226
*971 FILLER_4_230
*972 FILLER_4_232
*973 FILLER_4_240
*974 FILLER_4_272
*975 FILLER_4_304
*976 FILLER_4_336
*977 FILLER_4_368
*978 FILLER_4_384
*979 FILLER_4_386
*980 FILLER_4_391
*981 FILLER_4_407
*982 FILLER_4_415
*983 FILLER_4_419
*984 FILLER_5_1
*985 FILLER_5_33
*986 FILLER_5_65
*987 FILLER_5_97
*988 FILLER_5_129
*989 FILLER_5_161
*990 FILLER_5_193
*991 FILLER_5_225
*992 FILLER_5_257
*993 FILLER_5_289
*994 FILLER_5_321
*995 FILLER_5_353
*996 FILLER_5_369
*997 FILLER_5_377
*998 FILLER_5_381
*999 FILLER_5_383
*1000 FILLER_5_390
*1001 FILLER_5_406
*1002 FILLER_5_414
*1003 FILLER_5_418
*1004 FILLER_5_420
*1005 FILLER_6_1
*1006 FILLER_6_33
*1007 FILLER_6_65
*1008 FILLER_6_97
*1009 FILLER_6_129
*1010 FILLER_6_161
*1011 FILLER_6_193
*1012 FILLER_6_225
*1013 FILLER_6_257
*1014 FILLER_6_289
*1015 FILLER_6_321
*1016 FILLER_6_353
*1017 FILLER_6_385
*1018 FILLER_6_387
*1019 FILLER_6_392
*1020 FILLER_6_400
*1021 FILLER_6_405
*1022 FILLER_6_410
*1023 FILLER_6_418
*1024 FILLER_6_420
*1025 FILLER_7_1
*1026 FILLER_7_33
*1027 FILLER_7_65
*1028 FILLER_7_97
*1029 FILLER_7_129
*1030 FILLER_7_161
*1031 FILLER_7_193
*1032 FILLER_7_225
*1033 FILLER_7_257
*1034 FILLER_7_289
*1035 FILLER_7_321
*1036 FILLER_7_353
*1037 FILLER_7_385
*1038 FILLER_7_417
*1039 FILLER_8_1
*1040 FILLER_8_33
*1041 FILLER_8_65
*1042 FILLER_8_97
*1043 FILLER_8_129
*1044 FILLER_8_137
*1045 FILLER_8_145
*1046 FILLER_8_153
*1047 FILLER_8_159
*1048 FILLER_8_165
*1049 FILLER_8_197
*1050 FILLER_8_229
*1051 FILLER_8_261
*1052 FILLER_8_293
*1053 FILLER_8_325
*1054 FILLER_8_357
*1055 FILLER_8_389
*1056 FILLER_9_1
*1057 FILLER_9_33
*1058 FILLER_9_65
*1059 FILLER_9_97
*1060 FILLER_9_129
*1061 FILLER_9_131
*1062 FILLER_9_135
*1063 FILLER_9_151
*1064 FILLER_9_155
*1065 FILLER_9_164
*1066 FILLER_9_196
*1067 FILLER_9_228
*1068 FILLER_9_260
*1069 FILLER_9_292
*1070 FILLER_9_324
*1071 FILLER_9_356
*1072 FILLER_9_388
*1073 FILLER_9_420
*1074 FILLER_10_1
*1075 FILLER_10_33
*1076 FILLER_10_65
*1077 FILLER_10_97
*1078 FILLER_10_113
*1079 FILLER_10_121
*1080 FILLER_10_126
*1081 FILLER_10_134
*1082 FILLER_10_142
*1083 FILLER_10_174
*1084 FILLER_10_206
*1085 FILLER_10_238
*1086 FILLER_10_270
*1087 FILLER_10_302
*1088 FILLER_10_334
*1089 FILLER_10_366
*1090 FILLER_10_398
*1091 FILLER_10_414
*1092 FILLER_10_418
*1093 FILLER_10_420
*1094 FILLER_11_1
*1095 FILLER_11_33
*1096 FILLER_11_65
*1097 FILLER_11_97
*1098 FILLER_11_113
*1099 FILLER_11_121
*1100 FILLER_11_126
*1101 FILLER_11_135
*1102 FILLER_11_143
*1103 FILLER_11_149
*1104 FILLER_11_181
*1105 FILLER_11_213
*1106 FILLER_11_245
*1107 FILLER_11_277
*1108 FILLER_11_309
*1109 FILLER_11_341
*1110 FILLER_11_373
*1111 FILLER_11_405
*1112 FILLER_12_1
*1113 FILLER_12_33
*1114 FILLER_12_65
*1115 FILLER_12_97
*1116 FILLER_12_113
*1117 FILLER_12_121
*1118 FILLER_12_125
*1119 FILLER_12_140
*1120 FILLER_12_148
*1121 FILLER_12_180
*1122 FILLER_12_212
*1123 FILLER_12_244
*1124 FILLER_12_276
*1125 FILLER_12_308
*1126 FILLER_12_340
*1127 FILLER_12_372
*1128 FILLER_12_404
*1129 FILLER_12_420
*1130 FILLER_13_1
*1131 FILLER_13_33
*1132 FILLER_13_65
*1133 FILLER_13_97
*1134 FILLER_13_113
*1135 FILLER_13_121
*1136 FILLER_13_127
*1137 FILLER_13_159
*1138 FILLER_13_175
*1139 FILLER_13_183
*1140 FILLER_13_193
*1141 FILLER_13_201
*1142 FILLER_13_209
*1143 FILLER_13_247
*1144 FILLER_13_251
*1145 FILLER_13_253
*1146 FILLER_13_260
*1147 FILLER_13_292
*1148 FILLER_13_324
*1149 FILLER_13_356
*1150 FILLER_13_388
*1151 FILLER_13_420
*1152 FILLER_14_1
*1153 FILLER_14_21
*1154 FILLER_14_27
*1155 FILLER_14_59
*1156 FILLER_14_91
*1157 FILLER_14_107
*1158 FILLER_14_111
*1159 FILLER_14_118
*1160 FILLER_14_126
*1161 FILLER_14_135
*1162 FILLER_14_167
*1163 FILLER_14_175
*1164 FILLER_14_179
*1165 FILLER_14_181
*1166 FILLER_14_188
*1167 FILLER_14_192
*1168 FILLER_14_200
*1169 FILLER_14_209
*1170 FILLER_14_215
*1171 FILLER_14_220
*1172 FILLER_14_252
*1173 FILLER_14_256
*1174 FILLER_14_258
*1175 FILLER_14_263
*1176 FILLER_14_269
*1177 FILLER_14_301
*1178 FILLER_14_333
*1179 FILLER_14_365
*1180 FILLER_14_397
*1181 FILLER_14_413
*1182 FILLER_15_1
*1183 FILLER_15_9
*1184 FILLER_15_13
*1185 FILLER_15_21
*1186 FILLER_15_36
*1187 FILLER_15_68
*1188 FILLER_15_100
*1189 FILLER_15_116
*1190 FILLER_15_120
*1191 FILLER_15_126
*1192 FILLER_15_158
*1193 FILLER_15_190
*1194 FILLER_15_198
*1195 FILLER_15_200
*1196 FILLER_15_205
*1197 FILLER_15_210
*1198 FILLER_15_242
*1199 FILLER_15_250
*1200 FILLER_15_261
*1201 FILLER_15_293
*1202 FILLER_15_309
*1203 FILLER_15_313
*1204 FILLER_15_320
*1205 FILLER_15_328
*1206 FILLER_15_360
*1207 FILLER_15_392
*1208 FILLER_15_408
*1209 FILLER_15_416
*1210 FILLER_15_420
*1211 FILLER_16_1
*1212 FILLER_16_33
*1213 FILLER_16_65
*1214 FILLER_16_97
*1215 FILLER_16_113
*1216 FILLER_16_120
*1217 FILLER_16_126
*1218 FILLER_16_131
*1219 FILLER_16_163
*1220 FILLER_16_195
*1221 FILLER_16_227
*1222 FILLER_16_259
*1223 FILLER_16_291
*1224 FILLER_16_307
*1225 FILLER_16_311
*1226 FILLER_16_313
*1227 FILLER_16_317
*1228 FILLER_16_326
*1229 FILLER_16_331
*1230 FILLER_16_363
*1231 FILLER_16_395
*1232 FILLER_16_411
*1233 FILLER_16_419
*1234 FILLER_17_1
*1235 FILLER_17_17
*1236 FILLER_17_21
*1237 FILLER_17_23
*1238 FILLER_17_30
*1239 FILLER_17_62
*1240 FILLER_17_94
*1241 FILLER_17_110
*1242 FILLER_17_114
*1243 FILLER_17_122
*1244 FILLER_17_130
*1245 FILLER_17_162
*1246 FILLER_17_194
*1247 FILLER_17_226
*1248 FILLER_17_258
*1249 FILLER_17_290
*1250 FILLER_17_322
*1251 FILLER_17_354
*1252 FILLER_17_386
*1253 FILLER_17_418
*1254 FILLER_17_420
*1255 FILLER_18_1
*1256 FILLER_18_17
*1257 FILLER_18_19
*1258 FILLER_18_27
*1259 FILLER_18_35
*1260 FILLER_18_42
*1261 FILLER_18_74
*1262 FILLER_18_106
*1263 FILLER_18_138
*1264 FILLER_18_170
*1265 FILLER_18_202
*1266 FILLER_18_218
*1267 FILLER_18_225
*1268 FILLER_18_241
*1269 FILLER_18_249
*1270 FILLER_18_253
*1271 FILLER_18_258
*1272 FILLER_18_290
*1273 FILLER_18_322
*1274 FILLER_18_354
*1275 FILLER_18_386
*1276 FILLER_18_418
*1277 FILLER_18_420
*1278 FILLER_19_1
*1279 FILLER_19_9
*1280 FILLER_19_14
*1281 FILLER_19_22
*1282 FILLER_19_27
*1283 FILLER_19_39
*1284 FILLER_19_45
*1285 FILLER_19_50
*1286 FILLER_19_82
*1287 FILLER_19_114
*1288 FILLER_19_146
*1289 FILLER_19_178
*1290 FILLER_19_210
*1291 FILLER_19_218
*1292 FILLER_19_234
*1293 FILLER_19_242
*1294 FILLER_19_246
*1295 FILLER_19_248
*1296 FILLER_19_252
*1297 FILLER_19_257
*1298 FILLER_19_265
*1299 FILLER_19_297
*1300 FILLER_19_329
*1301 FILLER_19_361
*1302 FILLER_19_393
*1303 FILLER_19_409
*1304 FILLER_19_417
*1305 FILLER_20_1
*1306 FILLER_20_9
*1307 FILLER_20_13
*1308 FILLER_20_15
*1309 FILLER_20_22
*1310 FILLER_20_32
*1311 FILLER_20_40
*1312 FILLER_20_46
*1313 FILLER_20_52
*1314 FILLER_20_84
*1315 FILLER_20_116
*1316 FILLER_20_148
*1317 FILLER_20_164
*1318 FILLER_20_172
*1319 FILLER_20_180
*1320 FILLER_20_196
*1321 FILLER_20_204
*1322 FILLER_20_208
*1323 FILLER_20_210
*1324 FILLER_20_215
*1325 FILLER_20_223
*1326 FILLER_20_239
*1327 FILLER_20_246
*1328 FILLER_20_261
*1329 FILLER_20_270
*1330 FILLER_20_278
*1331 FILLER_20_310
*1332 FILLER_20_342
*1333 FILLER_20_374
*1334 FILLER_20_382
*1335 FILLER_20_386
*1336 FILLER_20_388
*1337 FILLER_20_395
*1338 FILLER_20_411
*1339 FILLER_20_419
*1340 FILLER_21_1
*1341 FILLER_21_17
*1342 FILLER_21_25
*1343 FILLER_21_29
*1344 FILLER_21_37
*1345 FILLER_21_45
*1346 FILLER_21_77
*1347 FILLER_21_109
*1348 FILLER_21_141
*1349 FILLER_21_173
*1350 FILLER_21_205
*1351 FILLER_21_213
*1352 FILLER_21_218
*1353 FILLER_21_250
*1354 FILLER_21_252
*1355 FILLER_21_259
*1356 FILLER_21_263
*1357 FILLER_21_270
*1358 FILLER_21_278
*1359 FILLER_21_282
*1360 FILLER_21_287
*1361 FILLER_21_292
*1362 FILLER_21_324
*1363 FILLER_21_356
*1364 FILLER_21_388
*1365 FILLER_21_420
*1366 FILLER_22_1
*1367 FILLER_22_33
*1368 FILLER_22_65
*1369 FILLER_22_97
*1370 FILLER_22_129
*1371 FILLER_22_161
*1372 FILLER_22_169
*1373 FILLER_22_177
*1374 FILLER_22_186
*1375 FILLER_22_218
*1376 FILLER_22_250
*1377 FILLER_22_254
*1378 FILLER_22_259
*1379 FILLER_22_268
*1380 FILLER_22_284
*1381 FILLER_22_292
*1382 FILLER_22_300
*1383 FILLER_22_332
*1384 FILLER_22_364
*1385 FILLER_22_380
*1386 FILLER_22_388
*1387 FILLER_22_392
*1388 FILLER_22_400
*1389 FILLER_22_416
*1390 FILLER_22_420
*1391 FILLER_23_1
*1392 FILLER_23_20
*1393 FILLER_23_25
*1394 FILLER_23_57
*1395 FILLER_23_89
*1396 FILLER_23_121
*1397 FILLER_23_153
*1398 FILLER_23_169
*1399 FILLER_23_177
*1400 FILLER_23_182
*1401 FILLER_23_187
*1402 FILLER_23_219
*1403 FILLER_23_255
*1404 FILLER_23_263
*1405 FILLER_23_295
*1406 FILLER_23_297
*1407 FILLER_23_304
*1408 FILLER_23_312
*1409 FILLER_23_344
*1410 FILLER_23_376